/*--------------------------------*- C++ -*----------------------------------*\
| =========                 |                                                 |
| \\      /  F ield         | OpenFOAM: The Open Source CFD Toolbox           |
|  \\    /   O peration     | Version:  3.0.x                                 |
|   \\  /    A nd           | Web:      www.OpenFOAM.org                      |
|    \\/     M anipulation  |                                                 |
\*---------------------------------------------------------------------------*/
FoamFile
{
    version     2.0;
    format      ascii;
    class       dictionary;
    object      blockMeshDict;
}
// * * * * * * * * * * * * * * * * * * * * * * * * * * * * * * * * * * * * * //

convertToMeters 1;

xmin -120;
xmax  200;
ymin    0;	//-100 whole geo or 0 half geo
ymax  100;
zmin -100;
zmax  100;

xcells 50;
ycells 30;
zcells 30;

lx #calc "$xmax - $xmin";
dx 6;
xcells #calc "floor(abs($lx/$dx))";

ly #calc "$ymax - $ymin";
dy 6;
ycells #calc "floor(abs($ly/$dy))";

lz #calc "$zmax - $zmin";
dz 6;
zcells #calc "floor(abs($lz/$dz))";

vertices        
(
    ($xmin  $ymin  $zmin)
    ($xmax  $ymin  $zmin)
    ($xmax  $ymax  $zmin)
    ($xmin  $ymax  $zmin)
    ($xmin  $ymin  $zmax)
    ($xmax  $ymin  $zmax)
    ($xmax  $ymax  $zmax)
    ($xmin  $ymax  $zmax)
);

blocks          
(
    hex (0 1 2 3 4 5 6 7) ($xcells $ycells $zcells) simpleGrading (1 1 1)
);

edges           
(
);

patches         
(
    patch minX
    (
        (0 4 7 3)
    )
    patch maxX
    (
        (2 6 5 1)
    )
    patch minY
    (
        (1 5 4 0)
    )
    patch maxY 
    (
        (3 7 6 2)
    )
    patch minZ
    (
        (0 3 2 1)
    )
    patch maxZ
    (
        (4 5 6 7)
    )
);

mergePatchPairs 
(
);

// ************************************************************************* //
