/*--------------------------------*- C++ -*----------------------------------*\
| =========                 |                                                 |
| \\      /  F ield         | OpenFOAM: The Open Source CFD Toolbox           |
|  \\    /   O peration     | Version:  3.0.x                                 |
|   \\  /    A nd           | Web:      www.OpenFOAM.org                      |
|    \\/     M anipulation  |                                                 |
\*---------------------------------------------------------------------------*/
FoamFile
{
    version     2.0;
    format      ascii;
    class       dictionary;
    object      fvSolution;
}
// * * * * * * * * * * * * * * * * * * * * * * * * * * * * * * * * * * * * * //

solvers
{
    U
    {
        solver          PBiCG;
        preconditioner  DILU;
        tolerance       1e-8;
        relTol          0.01;

	minIter 1;
    }

    UFinal
    {
        solver          PBiCG;
        preconditioner  DILU;
        tolerance       1e-10;
        relTol          0;

	minIter 1;
    }

    p
    {
/*
        solver           GAMG;
        tolerance        1e-8;
        //relTol           0.01;
        relTol           0.0;
        smoother         GaussSeidel;
        nPreSweeps       0;
        nPostSweeps      2;
        cacheAgglomeration on;
        agglomerator     faceAreaPair;
        //nCellsInCoarsestLevel 100;
        nCellsInCoarsestLevel 10;
        mergeLevels      1;
*/

        solver          PBiCG;
        preconditioner  DILU;
        tolerance       1e-6;
        relTol          0.01;

	minIter 1;
    }

    pFinal
    {
        $p;
        relTol          0.0;

	minIter 1;
    }

    "e.*"
    {
        solver          PBiCG;
        preconditioner  DILU;
        tolerance       1e-8;
        relTol          0.0;

	minIter 1;
    }

    "rho.*"
    {
        solver          diagonal;

	minIter 1;
    }
}

PIMPLE
{
    nOuterCorrectors     1;
    nCorrectors          2;
    nNonOrthogonalCorrectors 1;
}

// ************************************************************************* //
